<?xml version="1.0" encoding="UTF-8"?>
<networkml xmlns="http://morphml.org/networkml/schema" xmlns:meta="http://morphml.org/metadata/schema" xmlns:xsi="http://www.w3.org/2001/XMLSchema-instance" xsi:schemaLocation="http://morphml.org/networkml/schema  http://www.neuroml.org/NeuroMLValidator/NeuroMLFiles/Schemata/v1.8.1/Level3/NetworkML_v1.8.1.xsd" lengthUnits="micrometer">

<meta:notes>

LIF cell with current injection: written by Aditya Gilra

</meta:notes>

<populations>
    <!-- LIF cell with current injection -->
    <population name="LIFs" cell_type="LIF">
        <meta:properties>
            <meta:property tag="color" value="0.69921875 0.5703125 0.96484375"/>
        </meta:properties>
        <instances size="2">
            <instance id="0">
                <location x="0.0" y="0.0" z="0.0"/>
            </instance>
            <instance id="1">
                <location x="100.0" y="0.0" z="0.0"/>
            </instance>
        </instances>
    </population>
</populations>

<projections units="SI Units">
    <projection name="twoLIF" source="LIFs" target="LIFs">
        <synapse_props prop_delay="0.0" synapse_type="exc_syn" threshold="-0.015" weight="1.0" />
        <connections size="1">
            <connection id="0" post_cell_id="1" post_segment_id="0" pre_cell_id="0" pre_segment_id="0">
                <properties internal_delay="0.0" synapse_type="exc_syn" weight="1.23409309052" />
            </connection>
        </connections>
    </projection>
</projections>

<inputs units="Physiological Units">
    <input name="LIF_10pA">
        <!--<pulse_input delay="100.0" duration="500.0" amplitude="1.0E-5"/>-->
        <!-- injecting directly into soma.inject in the cell's MorphML -->
        <pulse_input delay="100.0" duration="500.0" amplitude="0.0"/>
        <target population="LIFs">
            <sites size="1">
                <site cell_id="0" segment_id="0" fraction_along="0.5"/>
            </sites>
        </target>
    </input>
</inputs>

</networkml>
